# Packages
 &PACKAGES
 useGMRedi=.TRUE.,
 useRBCS=.TRUE.,
 useLayers=.FALSE.,
 useDiagnostics=.TRUE.,
 &
